data_image0
_chemical_formula_structural       Cs16Hf4W4Au4Pt4I48
_chemical_formula_sum              "Cs16 Hf4 W4 Au4 Pt4 I48"
_cell_length_a       16
_cell_length_b       17
_cell_length_c       11.6
_cell_angle_alpha    90
_cell_angle_beta     90
_cell_angle_gamma    90

_space_group_name_H-M_alt    "P 1"
_space_group_IT_number       1

loop_
  _space_group_symop_operation_xyz
  'x, y, z'

loop_
  _atom_site_type_symbol
  _atom_site_label
  _atom_site_symmetry_multiplicity
  _atom_site_fract_x
  _atom_site_fract_y
  _atom_site_fract_z
  _atom_site_occupancy
  Cs  Cs1       1.0  0.27003  0.04851  0.75000  1.0000
  Cs  Cs2       1.0  0.27003  0.54851  0.75000  1.0000
  Cs  Cs3       1.0  0.77003  0.04851  0.75000  1.0000
  Cs  Cs4       1.0  0.77003  0.54851  0.75000  1.0000
  Cs  Cs5       1.0  0.22997  0.45149  0.25000  1.0000
  Cs  Cs6       1.0  0.22997  0.95149  0.25000  1.0000
  Cs  Cs7       1.0  0.72997  0.45149  0.25000  1.0000
  Cs  Cs8       1.0  0.72997  0.95149  0.25000  1.0000
  Cs  Cs9       1.0  0.02110  0.20031  0.24999  1.0000
  Cs  Cs10      1.0  0.02110  0.70031  0.24999  1.0000
  Cs  Cs11      1.0  0.52110  0.20031  0.24999  1.0000
  Cs  Cs12      1.0  0.52110  0.70031  0.24999  1.0000
  Cs  Cs13      1.0  0.97890  0.29969  0.75001  1.0000
  Cs  Cs14      1.0  0.97890  0.79969  0.75001  1.0000
  Cs  Cs15      1.0  0.47890  0.29969  0.75001  1.0000
  Cs  Cs16      1.0  0.47890  0.79969  0.75001  1.0000
  Hf  Hf1       1.0  0.00000  0.00000  0.50000  1.0000
  Hf  Hf2       1.0  0.00000  0.50000  0.50000  1.0000
  Hf  Hf3       1.0  0.50000  0.00000  0.50000  1.0000
  Hf  Hf4       1.0  0.50000  0.50000  0.50000  1.0000
  W   W1        1.0  0.25000  0.25000  0.50000  1.0000
  W   W2        1.0  0.25000  0.75000  0.50000  1.0000
  W   W3        1.0  0.75000  0.25000  0.50000  1.0000
  W   W4        1.0  0.75000  0.75000  0.50000  1.0000
  Au  Au1       1.0  0.00000  0.00000  0.00000  1.0000
  Au  Au2       1.0  0.00000  0.50000  0.00000  1.0000
  Au  Au3       1.0  0.50000  0.00000  0.00000  1.0000
  Au  Au4       1.0  0.50000  0.50000  0.00000  1.0000
  Pt  Pt1       1.0  0.25000  0.25000  0.00000  1.0000
  Pt  Pt2       1.0  0.25000  0.75000  0.00000  1.0000
  Pt  Pt3       1.0  0.75000  0.25000  0.00000  1.0000
  Pt  Pt4       1.0  0.75000  0.75000  0.00000  1.0000
  I   I1        1.0  0.15922  0.09363  0.43899  1.0000
  I   I2        1.0  0.15922  0.59363  0.43899  1.0000
  I   I3        1.0  0.65922  0.09363  0.43899  1.0000
  I   I4        1.0  0.65922  0.59363  0.43899  1.0000
  I   I5        1.0  0.34078  0.40637  0.56101  1.0000
  I   I6        1.0  0.34078  0.90637  0.56101  1.0000
  I   I7        1.0  0.84078  0.40637  0.56101  1.0000
  I   I8        1.0  0.84078  0.90637  0.56101  1.0000
  I   I9        1.0  0.08839  0.34599  0.43853  1.0000
  I   I10       1.0  0.08839  0.84599  0.43853  1.0000
  I   I11       1.0  0.58839  0.34599  0.43853  1.0000
  I   I12       1.0  0.58839  0.84599  0.43853  1.0000
  I   I13       1.0  0.41161  0.15401  0.56147  1.0000
  I   I14       1.0  0.41161  0.65401  0.56147  1.0000
  I   I15       1.0  0.91161  0.15401  0.56147  1.0000
  I   I16       1.0  0.91161  0.65401  0.56147  1.0000
  I   I17       1.0  0.34078  0.40637  0.93899  1.0000
  I   I18       1.0  0.34078  0.90637  0.93899  1.0000
  I   I19       1.0  0.84078  0.40637  0.93899  1.0000
  I   I20       1.0  0.84078  0.90637  0.93899  1.0000
  I   I21       1.0  0.15922  0.09363  0.06101  1.0000
  I   I22       1.0  0.15922  0.59363  0.06101  1.0000
  I   I23       1.0  0.65922  0.09363  0.06101  1.0000
  I   I24       1.0  0.65922  0.59363  0.06101  1.0000
  I   I25       1.0  0.41161  0.15401  0.93854  1.0000
  I   I26       1.0  0.41161  0.65401  0.93854  1.0000
  I   I27       1.0  0.91161  0.15401  0.93854  1.0000
  I   I28       1.0  0.91161  0.65401  0.93854  1.0000
  I   I29       1.0  0.08839  0.34599  0.06146  1.0000
  I   I30       1.0  0.08839  0.84599  0.06146  1.0000
  I   I31       1.0  0.58839  0.34599  0.06146  1.0000
  I   I32       1.0  0.58839  0.84599  0.06146  1.0000
  I   I33       1.0  0.93746  0.01696  0.24999  1.0000
  I   I34       1.0  0.93746  0.51696  0.24999  1.0000
  I   I35       1.0  0.43746  0.01696  0.24999  1.0000
  I   I36       1.0  0.43746  0.51696  0.24999  1.0000
  I   I37       1.0  0.06254  0.98304  0.75001  1.0000
  I   I38       1.0  0.06254  0.48304  0.75001  1.0000
  I   I39       1.0  0.56254  0.98304  0.75001  1.0000
  I   I40       1.0  0.56254  0.48304  0.75001  1.0000
  I   I41       1.0  0.18175  0.22942  0.75000  1.0000
  I   I42       1.0  0.18175  0.72942  0.75000  1.0000
  I   I43       1.0  0.68175  0.22942  0.75000  1.0000
  I   I44       1.0  0.68175  0.72942  0.75000  1.0000
  I   I45       1.0  0.31825  0.27058  0.25000  1.0000
  I   I46       1.0  0.31825  0.77058  0.25000  1.0000
  I   I47       1.0  0.81825  0.27058  0.25000  1.0000
  I   I48       1.0  0.81825  0.77058  0.25000  1.0000
